%nproc=28
%mem=120GB
%chk=hoono_eq.chk
#p  freq opt=(z-matrix) mp2/aug-cc-pvtz density=current

title

0 1
H 
O 1 r1 
O 2 r2 1 a1 
N 3 r3 2 a2 1 d1
O 4 r4 3 a3 2 d2
Variables
 r1=0.9823
 r2=1.4418
 r3=1.3845
 r4=1.1917
 a1=99.804
 a2=112.983
 a3=114.400
 d1=0.0
 d2=0.0









































