%nproc=28
%mem=120GB
%chk=/gscratch/ilahie/mccoygrp/coire_hoono/hono/hono_test/hono_r1_0p9803006882525841.log
#p SP mp2/aug-cc-pvtz density=current

title

0 1
H       
O 1 r1     
N 2 r2 1 a1   
O 3 r3 2 a2 1 d3 
Variables
 r1=0.9803006882525841
 r2=1.42776435
 r3=1.17680217
 a1=101.62778541
 a2=110.70859147
 d3=180.0










