%nproc=28
%mem=120GB
%chk=/gscratch/ilahie/mccoygrp/coire_hoono/hono/hono_test/hono_a1_99p8287870511688.log
#p SP mp2/aug-cc-pvtz density=current

title

0 1
H       
O 1 r1     
N 2 r2 1 a1   
O 3 r3 2 a2 1 d3 
Variables
 r1=0.97026274
 r2=1.42776435
 r3=1.17680217
 a1=99.8287870511688
 a2=110.70859147
 d3=180.0










