%nproc=28
%mem=120GB
%chk=hoono_a3_115p3956.chk
#p freq mp2/aug-cc-pvtz density=current

title

0 1
H       
O 1 r1     
O 2 r2 1 a1   
N 3 r3 2 a2 1 d1 
O 4 r4 3 a3 2 d2 
Variables
 r1=0.98537664
 r2=1.42673666
 r3=1.38110764
 r4=1.19478846
 a1=100.6355057
 a2=113.13777052
 a3=115.3956675816204
 d1=0.0
 d2=0.0










